Version 4
SHEET 1 880 680
WIRE 448 80 240 80
WIRE 816 80 448 80
WIRE 240 128 240 80
WIRE 448 128 448 80
WIRE 448 256 448 208
WIRE 592 256 448 256
WIRE 704 256 656 256
WIRE 448 272 448 256
WIRE 816 288 816 80
WIRE 112 320 0 320
WIRE 240 320 240 208
WIRE 240 320 176 320
WIRE 384 320 240 320
WIRE 704 336 704 256
WIRE 0 400 0 320
WIRE 240 432 240 320
WIRE 448 432 448 368
WIRE 0 560 0 480
WIRE 240 560 240 512
WIRE 240 560 0 560
WIRE 448 560 448 512
WIRE 448 560 240 560
WIRE 704 560 704 416
WIRE 704 560 448 560
WIRE 816 560 816 368
WIRE 816 560 704 560
WIRE 448 592 448 560
FLAG 448 592 0
SYMBOL npn 384 272 R0
SYMATTR InstName Q1
SYMATTR Value 2N3904
SYMBOL Res 224 112 R0
SYMATTR InstName R1
SYMATTR Value 3.9k
SYMBOL Res 224 416 R0
SYMATTR InstName R2
SYMATTR Value 1k
SYMBOL Res 432 112 R0
SYMATTR InstName R3
SYMATTR Value 500
SYMBOL Res 432 416 R0
SYMATTR InstName R4
SYMATTR Value 755
SYMBOL Cap 176 304 R90
WINDOW 0 0 32 VBottom 2
WINDOW 3 32 32 VTop 2
SYMATTR InstName C1
SYMATTR Value 21n
SYMBOL Cap 656 240 R90
WINDOW 0 0 32 VBottom 2
WINDOW 3 32 32 VTop 2
SYMATTR InstName C2
SYMATTR Value 19.29n
SYMBOL Res 688 320 R0
SYMATTR InstName R5
SYMATTR Value 50
SYMBOL Voltage 816 272 R0
SYMATTR InstName V1
SYMATTR Value 5
SYMBOL Voltage 0 384 R0
WINDOW 3 24 96 Invisible 2
WINDOW 123 24 118 Left 2
SYMATTR InstName V2
SYMATTR Value SINE()
SYMATTR Value2 AC 5 0
TEXT -232 656 Left 2 !.ac dec 10 10 100k V2
