Version 4
SHEET 1 1000 680
WIRE 384 208 144 208
WIRE 560 208 384 208
WIRE 144 272 144 208
WIRE 560 272 560 208
WIRE 384 400 384 208
WIRE 144 448 144 352
WIRE 320 448 144 448
WIRE 384 544 384 496
WIRE 560 544 560 352
WIRE 560 544 384 544
WIRE 384 576 384 544
FLAG 384 576 0
SYMBOL current 144 272 R0
SYMATTR InstName I1
SYMATTR Value 10µ
SYMBOL Voltage 560 256 R0
SYMATTR InstName V1
SYMATTR Value 5
SYMBOL npn 320 400 R0
SYMATTR InstName Q1
SYMATTR Value 2N3904
TEXT 624 320 Left 2 !.dc V1 0 5 0.001 I1 -50u 50u 10u
