Version 4
SHEET 1 880 680
WIRE 656 80 400 80
WIRE 320 128 256 128
WIRE 400 128 400 80
WIRE 256 160 256 128
WIRE 400 240 400 208
WIRE 656 256 656 80
WIRE 320 304 320 128
WIRE 352 304 320 304
WIRE 400 416 400 336
WIRE 656 416 656 336
WIRE 656 416 400 416
WIRE 400 448 400 416
FLAG 400 448 0
FLAG 256 240 0
SYMBOL njf 352 240 R0
SYMATTR InstName J1
SYMATTR Value J113
SYMBOL Voltage 656 240 R0
WINDOW 3 24 38 Left 2
SYMATTR InstName V1
SYMATTR Value 20
SYMBOL Res 384 112 R0
SYMATTR InstName R1
SYMATTR Value 1k
SYMBOL Voltage 256 144 R0
SYMATTR InstName V2
TEXT 112 464 Left 2 !.dc V1 0 20 1 V2 0 -3 0.5
