Version 4
SHEET 1 1064 680
WIRE 256 240 176 240
WIRE 480 240 336 240
WIRE 800 240 640 240
WIRE 960 240 880 240
WIRE 176 288 176 240
WIRE 480 288 480 240
WIRE 640 288 640 240
WIRE 960 288 960 240
WIRE 176 432 176 368
WIRE 480 432 480 368
WIRE 480 432 176 432
WIRE 640 432 640 368
WIRE 640 432 480 432
WIRE 960 432 960 368
WIRE 960 432 640 432
WIRE 176 464 176 432
FLAG 176 464 0
SYMBOL Voltage 176 272 R0
SYMATTR InstName V1
SYMATTR Value SINE(0 240 63.66)
SYMATTR SpiceLine Rser=0.000001
SYMBOL ind2 496 384 R180
WINDOW 0 36 80 Left 2
WINDOW 3 36 40 Left 2
SYMATTR InstName L1
SYMATTR Value 0.65
SYMATTR Type ind
SYMBOL ind2 656 384 R180
WINDOW 0 36 80 Left 2
WINDOW 3 36 40 Left 2
SYMATTR InstName L3
SYMATTR Value 0.0065
SYMATTR Type ind
SYMBOL Res 352 224 R90
WINDOW 0 0 56 VBottom 2
WINDOW 3 32 56 VTop 2
SYMATTR InstName R2
SYMATTR Value 1k
SYMBOL Res 896 224 R90
WINDOW 0 0 56 VBottom 2
WINDOW 3 32 56 VTop 2
SYMATTR InstName R1
SYMATTR Value 2E-3
SYMBOL ind 944 272 R0
SYMATTR InstName L2
SYMATTR Value 100E-6
TEXT 504 256 Left 2 !K L1 L3 0.99925
TEXT 480 504 Left 2 !.tran .0001 .010
TEXT 448 576 Left 2 !.meas REP MAX V(N004)*I(L2)
